02_pu_voltage_plots/ckt24/transformers_ckt24.dss
New	Transformer.05410_G2000FF4400	phases=1	wdg=1	bus=N283602.1	kV=19.9185842870421	kVA=10	wdg=2	bus=G2000FF4400_N283602_sec.1	kV=0.24	kVA=10	%imag=0.5	%loadloss=1.4	%noloadloss=0.325	xhl=1.575
New	Transformer.05410_G2000RN2800	phases=1	wdg=1	bus=N274196.3	kV=7.62102355330306	kVA=25	wdg=2	bus=G2000RN2800_N274196_sec.3	kV=0.24	kVA=25	%imag=0.5	%loadloss=1.266	%noloadloss=0.248	xhl=1.835
New	Transformer.05410_G2000RO4500	phases=1	wdg=1	bus=N274220.3	kV=7.62102355330306	kVA=25	wdg=2	bus=G2000RO4500_N274220_sec.3	kV=0.24	kVA=25	%imag=0.5	%loadloss=1.266	%noloadloss=0.248	xhl=1.835
New	Transformer.05410_G2000SK5500	phases=1	wdg=1	bus=N274137.2	kV=19.9185842870421	kVA=50	wdg=2	bus=G2000SK5500_N274137_sec.2	kV=0.24	kVA=50	%imag=0.5	%loadloss=0.877	%noloadloss=0.181	xhl=2.025
New	Transformer.05410_G2000SK7800	phases=1	wdg=1	bus=N274150.2	kV=19.9185842870421	kVA=50	wdg=2	bus=G2000SK7800_N274150_sec.2	kV=0.24	kVA=50	%imag=0.5	%loadloss=0.877	%noloadloss=0.181	xhl=2.025
New	Transformer.05410_G2000SN2500	phases=1	wdg=1	bus=N274191.3	kV=7.62102355330306	kVA=50	wdg=2	bus=G2000SN2500_N274191_sec.3	kV=0.24	kVA=50	%imag=0.5	%loadloss=0.877	%noloadloss=0.181	xhl=2.025
New	Transformer.05410_G2000SN8400	phases=1	wdg=1	bus=N274183.3	kV=7.62102355330306	kVA=25	wdg=2	bus=G2000SN8400_N274183_sec.3	kV=0.24	kVA=25	%imag=0.5	%loadloss=1.266	%noloadloss=0.248	xhl=1.835
New	Transformer.05410_G2000SN8800	phases=1	wdg=1	bus=N274200.3	kV=7.62102355330306	kVA=25	wdg=2	bus=G2000SN8800_N274200_sec.3	kV=0.24	kVA=25	%imag=0.5	%loadloss=1.266	%noloadloss=0.248	xhl=1.835
New	Transformer.05410_G2000SO1800	phases=1	wdg=1	bus=N274227.3	kV=7.62102355330306	kVA=50	wdg=2	bus=G2000SO1800_N274227_sec.3	kV=0.24	kVA=50	%imag=0.5	%loadloss=0.877	%noloadloss=0.181	xhl=2.025
New	Transformer.05410_G2000SO2200	phases=1	wdg=1	bus=N274207.3	kV=7.62102355330306	kVA=50	wdg=2	bus=G2000SO2200_N274207_sec.3	kV=0.24	kVA=50	%imag=0.5	%loadloss=0.877	%noloadloss=0.181	xhl=2.025
New	Transformer.05410_G2000SO9400	phases=1	wdg=1	bus=N274214.3	kV=7.62102355330306	kVA=25	wdg=2	bus=G2000SO9400_N274214_sec.3	kV=0.24	kVA=25	%imag=0.5	%loadloss=1.266	%noloadloss=0.248	xhl=1.835
New	Transformer.05410_G2000SO9800	phases=1	wdg=1	bus=N274224.3	kV=7.62102355330306	kVA=25	wdg=2	bus=G2000SO9800_N274224_sec.3	kV=0.24	kVA=25	%imag=0.5	%loadloss=1.266	%noloadloss=0.248	xhl=1.835
New	Transformer.05410_G2000TJ2700	phases=1	wdg=1	bus=N274103.3	kV=19.9185842870421	kVA=50	wdg=2	bus=G2000TJ2700_N274103_sec.3	kV=0.24	kVA=50	%imag=0.5	%loadloss=0.877	%noloadloss=0.181	xhl=2.025
New	Transformer.05410_G2000TL1200	phases=1	wdg=1	bus=N283789.2	kV=19.9185842870421	kVA=100	wdg=2	bus=G2000TL1200_N283789_sec.2	kV=0.24	kVA=100	%imag=0.5	%loadloss=1.3575	%noloadloss=0.131	xhl=3.29
New	Transformer.05410_G2000TL5600	phases=1	wdg=1	bus=N283806.2	kV=19.9185842870421	kVA=50	wdg=2	bus=G2000TL5600_N283806_sec.2	kV=0.24	kVA=50	%imag=0.5	%loadloss=0.877	%noloadloss=0.181	xhl=2.025
New	Transformer.05410_G2000TN4400	phases=1	wdg=1	bus=N283873.3	kV=7.62102355330306	kVA=50	wdg=2	bus=G2000TN4400_N283873_sec.3	kV=0.24	kVA=50	%imag=0.5	%loadloss=0.877	%noloadloss=0.181	xhl=2.025
New	Transformer.05410_G2000UH9400	phases=1	wdg=1	bus=N283633.3	kV=19.9185842870421	kVA=25	wdg=2	bus=G2000UH9400_N283633_sec.3	kV=0.24	kVA=25	%imag=0.5	%loadloss=1.266	%noloadloss=0.248	xhl=1.835
New	Transformer.05410_G2000UH9800	phases=1	wdg=1	bus=N283647.3	kV=19.9185842870421	kVA=50	wdg=2	bus=G2000UH9800_N283647_sec.3	kV=0.24	kVA=50	%imag=0.5	%loadloss=0.877	%noloadloss=0.181	xhl=2.025
New	Transformer.05410_G2000UI3100	phases=1	wdg=1	bus=N283702.3	kV=19.9185842870421	kVA=50	wdg=2	bus=G2000UI3100_N283702_sec.3	kV=0.24	kVA=50	%imag=0.5	%loadloss=0.877	%noloadloss=0.181	xhl=2.025
New	Transformer.05410_G2000UI5400	phases=1	wdg=1	bus=N283699.3	kV=19.9185842870421	kVA=100	wdg=2	bus=G2000UI5400_N283699_sec.3	kV=0.24	kVA=100	%imag=0.5	%loadloss=1.3575	%noloadloss=0.131	xhl=3.29
New	Transformer.05410_G2000UI6400	phases=1	wdg=1	bus=N283679.3	kV=19.9185842870421	kVA=50	wdg=2	bus=G2000UI6400_N283679_sec.3	kV=0.24	kVA=50	%imag=0.5	%loadloss=0.877	%noloadloss=0.181	xhl=2.025
New	Transformer.05410_G2000UJ0800	phases=1	wdg=1	bus=N283722.3	kV=19.9185842870421	kVA=50	wdg=2	bus=G2000UJ0800_N283722_sec.3	kV=0.24	kVA=50	%imag=0.5	%loadloss=0.877	%noloadloss=0.181	xhl=2.025
New	Transformer.05410_G2000UJ3600	phases=1	wdg=1	bus=N283731.2	kV=19.9185842870421	kVA=100	wdg=2	bus=G2000UJ3600_N283731_sec.2	kV=0.24	kVA=100	%imag=0.5	%loadloss=1.3575	%noloadloss=0.131	xhl=3.29
New	Transformer.05410_G2000UJ6500	phases=1	wdg=1	bus=N283747.2	kV=19.9185842870421	kVA=100	wdg=2	bus=G2000UJ6500_N283747_sec.2	kV=0.24	kVA=100	%imag=0.5	%loadloss=1.3575	%noloadloss=0.131	xhl=3.29
New	Transformer.05410_G2000UK1100	phases=1	wdg=1	bus=N283753.3	kV=19.9185842870421	kVA=50	wdg=2	bus=G2000UK1100_N283753_sec.3	kV=0.24	kVA=50	%imag=0.5	%loadloss=0.877	%noloadloss=0.181	xhl=2.025
New	Transformer.05410_G2000UL1900	phases=1	wdg=1	bus=N283810.2	kV=19.9185842870421	kVA=50	wdg=2	bus=G2000UL1900_N283810_sec.2	kV=0.24	kVA=50	%imag=0.5	%loadloss=0.877	%noloadloss=0.181	xhl=2.025
New	Transformer.05410_G2000UL3200	phases=1	wdg=1	bus=N283772.2	kV=19.9185842870421	kVA=100	wdg=2	bus=G2000UL3200_N283772_sec.2	kV=0.24	kVA=100	%imag=0.5	%loadloss=1.3575	%noloadloss=0.131	xhl=3.29
New	Transformer.05410_G2000UL7700	phases=1	wdg=1	bus=N283791.2	kV=19.9185842870421	kVA=50	wdg=2	bus=G2000UL7700_N283791_sec.2	kV=0.24	kVA=50	%imag=0.5	%loadloss=1.134	%noloadloss=0.181	xhl=1.965
New	Transformer.05410_G2000UM7300	phases=1	wdg=1	bus=N283821.2	kV=19.9185842870421	kVA=25	wdg=2	bus=G2000UM7300_N283821_sec.2	kV=0.24	kVA=25	%imag=0.5	%loadloss=1.316	%noloadloss=0.198	xhl=1.745
New	Transformer.05410_G2000UO1100	phases=1	wdg=1	bus=N283873.3	kV=7.62102355330306	kVA=50	wdg=2	bus=G2000UO1100_N283873_sec.3	kV=0.24	kVA=50	%imag=0.5	%loadloss=0.877	%noloadloss=0.181	xhl=2.025
New	Transformer.05410_G2000VB6800	phases=1	wdg=1	bus=N283880.3	kV=7.62102355330306	kVA=25	wdg=2	bus=G2000VB6800_N283880_sec.3	kV=0.24	kVA=25	%imag=0.5	%loadloss=1.266	%noloadloss=0.248	xhl=1.835
New	Transformer.05410_G2000VH4000	phases=1	wdg=1	bus=N283609.2	kV=19.9185842870421	kVA=15	wdg=2	bus=G2000VH4000_N283609_sec.2	kV=0.24	kVA=15	%imag=0.5	%loadloss=1.49333333333333	%noloadloss=0.273333333333333	xhl=2.18
New	Transformer.05410_G2000VH9100	phases=1	wdg=1	bus=N283615.3	kV=19.9185842870421	kVA=15	wdg=2	bus=G2000VH9100_N283615_sec.3	kV=0.24	kVA=15	%imag=0.5	%loadloss=1.49333333333333	%noloadloss=0.273333333333333	xhl=2.18
New	Transformer.05410_G2000VH9500	phases=1	wdg=1	bus=N283675.2	kV=19.9185842870421	kVA=167	wdg=2	bus=G2000VH9500_N283675_sec.2	kV=0.24	kVA=167	%imag=0.5	%loadloss=0.833532934131737	%noloadloss=0.161976047904192	xhl=2.355
New	Transformer.05410_G2000VI6200	phases=1	wdg=1	bus=N283684.2	kV=19.9185842870421	kVA=167	wdg=2	bus=G2000VI6200_N283684_sec.2	kV=0.24	kVA=167	%imag=0.5	%loadloss=0.833532934131737	%noloadloss=0.161976047904192	xhl=2.355
New	Transformer.05410_G2000VJ0200	phases=1	wdg=1	bus=N283716.2	kV=19.9185842870421	kVA=100	wdg=2	bus=G2000VJ0200_N283716_sec.2	kV=0.24	kVA=100	%imag=0.5	%loadloss=1.3575	%noloadloss=0.131	xhl=3.29
New	Transformer.05410_G2000VL8700	phases=1	wdg=1	bus=N283799.3	kV=19.9185842870421	kVA=25	wdg=2	bus=G2000VL8700_N283799_sec.3	kV=0.24	kVA=25	%imag=0.5	%loadloss=1.316	%noloadloss=0.198	xhl=1.745
New	Transformer.05410_G2000VM1500	phases=1	wdg=1	bus=N283827.2	kV=19.9185842870421	kVA=25	wdg=2	bus=G2000VM1500_N283827_sec.2	kV=0.24	kVA=25	%imag=0.5	%loadloss=1.316	%noloadloss=0.198	xhl=1.745
New	Transformer.05410_G2000VM6800	phases=1	wdg=1	bus=N283833.2	kV=19.9185842870421	kVA=25	wdg=2	bus=G2000VM6800_N283833_sec.2	kV=0.24	kVA=25	%imag=0.5	%loadloss=1.316	%noloadloss=0.198	xhl=1.745
New	Transformer.05410_G2000VO8200	phases=1	wdg=1	bus=N1309805.3	kV=7.62102355330306	kVA=50	wdg=2	bus=G2000VO8200_N1309805_sec.3	kV=0.24	kVA=50	%imag=0.5	%loadloss=0.877	%noloadloss=0.181	xhl=2.025
New	Transformer.05410_G2000WH5900	phases=1	wdg=1	bus=N283675.2	kV=19.9185842870421	kVA=50	wdg=2	bus=G2000WH5900_N283675_sec.2	kV=0.24	kVA=50	%imag=0.5	%loadloss=0.877	%noloadloss=0.181	xhl=2.025
New	Transformer.05410_G2000WI4400	phases=1	wdg=1	bus=N283710.2	kV=19.9185842870421	kVA=100	wdg=2	bus=G2000WI4400_N283710_sec.2	kV=0.24	kVA=100	%imag=0.5	%loadloss=1.3575	%noloadloss=0.131	xhl=3.29
New	Transformer.05410_G2000WK0800	phases=1	wdg=1	bus=N283765.2	kV=19.9185842870421	kVA=25	wdg=2	bus=G2000WK0800_N283765_sec.2	kV=0.24	kVA=25	%imag=0.5	%loadloss=1.316	%noloadloss=0.198	xhl=1.745
New	Transformer.05410_G2000WK8200	phases=1	wdg=1	bus=N283746.2	kV=19.9185842870421	kVA=15	wdg=2	bus=G2000WK8200_N283746_sec.2	kV=0.24	kVA=15	%imag=0.5	%loadloss=1.49333333333333	%noloadloss=0.273333333333333	xhl=2.18
New	Transformer.05410_G2000WL3500	phases=1	wdg=1	bus=N283799.3	kV=19.9185842870421	kVA=25	wdg=2	bus=G2000WL3500_N283799_sec.3	kV=0.24	kVA=25	%imag=0.5	%loadloss=1.316	%noloadloss=0.198	xhl=1.745
New	Transformer.05410_G2000WL4100	phases=1	wdg=1	bus=N283765.2	kV=19.9185842870421	kVA=25	wdg=2	bus=G2000WL4100_N283765_sec.2	kV=0.24	kVA=25	%imag=0.5	%loadloss=1.316	%noloadloss=0.198	xhl=1.745
New	Transformer.05410_G2000WL9300	phases=1	wdg=1	bus=N283779.2	kV=19.9185842870421	kVA=15	wdg=2	bus=G2000WL9300_N283779_sec.2	kV=0.24	kVA=15	%imag=0.5	%loadloss=1.49333333333333	%noloadloss=0.273333333333333	xhl=2.18
New	Transformer.05410_G2000WM0100	phases=1	wdg=1	bus=N283809.3	kV=19.9185842870421	kVA=25	wdg=2	bus=G2000WM0100_N283809_sec.3	kV=0.24	kVA=25	%imag=0.5	%loadloss=1.316	%noloadloss=0.198	xhl=1.745
New	Transformer.05410_G2000WM3200	phases=1	wdg=1	bus=N283819.3	kV=19.9185842870421	kVA=25	wdg=2	bus=G2000WM3200_N283819_sec.3	kV=0.24	kVA=25	%imag=0.5	%loadloss=1.316	%noloadloss=0.198	xhl=1.745
New	Transformer.05410_G2000WM6400	phases=1	wdg=1	bus=N283824.3	kV=19.9185842870421	kVA=37.5	wdg=2	bus=G2000WM6400_N283824_sec.3	kV=0.24	kVA=37.5	%imag=0.5	%loadloss=1.212	%noloadloss=0.2115	xhl=1.9025
New	Transformer.05410_G2000WN0100	phases=1	wdg=1	bus=N283840.2	kV=19.9185842870421	kVA=25	wdg=2	bus=G2000WN0100_N283840_sec.2	kV=0.24	kVA=25	%imag=0.5	%loadloss=1.316	%noloadloss=0.198	xhl=1.745
New	Transformer.05410_G2000WN3300	phases=1	wdg=1	bus=N283848.2	kV=19.9185842870421	kVA=25	wdg=2	bus=G2000WN3300_N283848_sec.2	kV=0.24	kVA=25	%imag=0.5	%loadloss=1.316	%noloadloss=0.198	xhl=1.745
New	Transformer.05410_G2000WO2300	phases=1	wdg=1	bus=N283902.3	kV=7.62102355330306	kVA=25	wdg=2	bus=G2000WO2300_N283902_sec.3	kV=0.24	kVA=25	%imag=0.5	%loadloss=1.266	%noloadloss=0.248	xhl=1.835
New	Transformer.05410_G2000WO8800	phases=1	wdg=1	bus=N283892.3	kV=7.62102355330306	kVA=25	wdg=2	bus=G2000WO8800_N283892_sec.3	kV=0.24	kVA=25	%imag=0.5	%loadloss=1.266	%noloadloss=0.248	xhl=1.835
New	Transformer.05410_G2000XE9500	phases=1	wdg=1	bus=N283544.3	kV=7.62102355330306	kVA=100	wdg=2	bus=G2000XE9500_N283544_sec.3	kV=0.24	kVA=100	%imag=0.5	%loadloss=1.3575	%noloadloss=0.131	xhl=3.29
New	Transformer.05410_G2000XF7700	phases=1	wdg=1	bus=N283582.3	kV=7.62102355330306	kVA=50	wdg=2	bus=G2000XF7700_N283582_sec.3	kV=0.24	kVA=50	%imag=0.5	%loadloss=0.877	%noloadloss=0.181	xhl=2.025
New	Transformer.05410_G2000XG5800	phases=1	wdg=1	bus=N283612.3	kV=7.62102355330306	kVA=50	wdg=2	bus=G2000XG5800_N283612_sec.3	kV=0.24	kVA=50	%imag=0.5	%loadloss=0.877	%noloadloss=0.181	xhl=2.025
New	Transformer.05410_G2000XH0500	phases=1	wdg=1	bus=N283607.3	kV=19.9185842870421	kVA=15	wdg=2	bus=G2000XH0500_N283607_sec.3	kV=0.24	kVA=15	%imag=0.5	%loadloss=1.49333333333333	%noloadloss=0.273333333333333	xhl=2.18
New	Transformer.05410_G2000XH4000	phases=1	wdg=1	bus=N283639.3	kV=19.9185842870421	kVA=15	wdg=2	bus=G2000XH4000_N283639_sec.3	kV=0.24	kVA=15	%imag=0.5	%loadloss=1.49333333333333	%noloadloss=0.273333333333333	xhl=2.18
New	Transformer.05410_G2000XH4800	phases=1	wdg=1	bus=N283608.2	kV=19.9185842870421	kVA=25	wdg=2	bus=G2000XH4800_N283608_sec.2	kV=0.24	kVA=25	%imag=0.5	%loadloss=1.266	%noloadloss=0.248	xhl=1.835
New	Transformer.05410_G2000XH7500	phases=1	wdg=1	bus=N283636.3	kV=7.62102355330306	kVA=50	wdg=2	bus=G2000XH7500_N283636_sec.3	kV=0.24	kVA=50	%imag=0.5	%loadloss=0.877	%noloadloss=0.181	xhl=2.025
New	Transformer.05410_G2000XJ7800	phases=1	wdg=1	bus=N283732.2	kV=19.9185842870421	kVA=50	wdg=2	bus=G2000XJ7800_N283732_sec.2	kV=0.24	kVA=50	%imag=0.5	%loadloss=1.134	%noloadloss=0.181	xhl=1.965
New	Transformer.05410_G2000XJ9800	phases=1	wdg=1	bus=N283726.2	kV=19.9185842870421	kVA=50	wdg=2	bus=G2000XJ9800_N283726_sec.2	kV=0.24	kVA=50	%imag=0.5	%loadloss=1.134	%noloadloss=0.181	xhl=1.965
New	Transformer.05410_G2000XK5800	phases=1	wdg=1	bus=N283764.3	kV=19.9185842870421	kVA=15	wdg=2	bus=G2000XK5800_N283764_sec.3	kV=0.24	kVA=15	%imag=0.5	%loadloss=1.49333333333333	%noloadloss=0.273333333333333	xhl=2.18
New	Transformer.05410_G2000XL0100	phases=1	wdg=1	bus=N283777.1	kV=19.9185842870421	kVA=25	wdg=2	bus=G2000XL0100_N283777_sec.1	kV=0.24	kVA=25	%imag=0.5	%loadloss=1.316	%noloadloss=0.198	xhl=1.745
New	Transformer.05410_G2000XL0800	phases=1	wdg=1	bus=N283812.1	kV=19.9185842870421	kVA=25	wdg=2	bus=G2000XL0800_N283812_sec.1	kV=0.24	kVA=25	%imag=0.5	%loadloss=1.316	%noloadloss=0.198	xhl=1.745
New	Transformer.05410_G2000XL1500	phases=1	wdg=1	bus=N283787.1	kV=19.9185842870421	kVA=50	wdg=2	bus=G2000XL1500_N283787_sec.1	kV=0.24	kVA=50	%imag=0.5	%loadloss=1.134	%noloadloss=0.181	xhl=1.965
New	Transformer.05410_G2000XL6500	phases=1	wdg=1	bus=N283764.1	kV=19.9185842870421	kVA=25	wdg=2	bus=G2000XL6500_N283764_sec.1	kV=0.24	kVA=25	%imag=0.5	%loadloss=1.316	%noloadloss=0.198	xhl=1.745
New	Transformer.05410_G2000XL8000	phases=1	wdg=1	bus=N283769.1	kV=19.9185842870421	kVA=25	wdg=2	bus=G2000XL8000_N283769_sec.1	kV=0.24	kVA=25	%imag=0.5	%loadloss=1.316	%noloadloss=0.198	xhl=1.745
New	Transformer.05410_G2000XL9500	phases=1	wdg=1	bus=N283792.1	kV=19.9185842870421	kVA=25	wdg=2	bus=G2000XL9500_N283792_sec.1	kV=0.24	kVA=25	%imag=0.5	%loadloss=1.316	%noloadloss=0.198	xhl=1.745
New	Transformer.05410_G2000XM1800	phases=1	wdg=1	bus=N283834.3	kV=19.9185842870421	kVA=25	wdg=2	bus=G2000XM1800_N283834_sec.3	kV=0.24	kVA=25	%imag=0.5	%loadloss=1.316	%noloadloss=0.198	xhl=1.745
New	Transformer.05410_G2000XN2900	phases=1	wdg=1	bus=N283859.3	kV=19.9185842870421	kVA=25	wdg=2	bus=G2000XN2900_N283859_sec.3	kV=0.24	kVA=25	%imag=0.5	%loadloss=1.316	%noloadloss=0.198	xhl=1.745
New	Transformer.05410_G2000XN3600	phases=1	wdg=1	bus=N283894.3	kV=7.62102355330306	kVA=25	wdg=2	bus=G2000XN3600_N283894_sec.3	kV=0.24	kVA=25	%imag=0.5	%loadloss=1.266	%noloadloss=0.248	xhl=1.835
New	Transformer.05410_G2000XN7400	phases=1	wdg=1	bus=N283885.3	kV=7.62102355330306	kVA=25	wdg=2	bus=G2000XN7400_N283885_sec.3	kV=0.24	kVA=25	%imag=0.5	%loadloss=1.266	%noloadloss=0.248	xhl=1.835
New	Transformer.05410_G2000XN9200	phases=1	wdg=1	bus=N283851.3	kV=19.9185842870421	kVA=25	wdg=2	bus=G2000XN9200_N283851_sec.3	kV=0.24	kVA=25	%imag=0.5	%loadloss=1.316	%noloadloss=0.198	xhl=1.745
New	Transformer.05410_G2000XN9500	phases=1	wdg=1	bus=N283851.3	kV=19.9185842870421	kVA=25	wdg=2	bus=G2000XN9500_N283851_sec.3	kV=0.24	kVA=25	%imag=0.5	%loadloss=1.316	%noloadloss=0.198	xhl=1.745
New	Transformer.05410_G2000XO7000	phases=1	wdg=1	bus=N283918.3	kV=7.62102355330306	kVA=100	wdg=2	bus=G2000XO7000_N283918_sec.3	kV=0.24	kVA=100	%imag=0.5	%loadloss=1.3575	%noloadloss=0.131	xhl=3.29
New	Transformer.05410_G2000XP1100	phases=1	wdg=1	bus=N283893.3	kV=7.62102355330306	kVA=25	wdg=2	bus=G2000XP1100_N283893_sec.3	kV=0.24	kVA=25	%imag=0.5	%loadloss=1.266	%noloadloss=0.248	xhl=1.835
New	Transformer.05410_G2000YE2100	phases=1	wdg=1	bus=N283532.3	kV=7.62102355330306	kVA=25	wdg=2	bus=G2000YE2100_N283532_sec.3	kV=0.24	kVA=25	%imag=0.5	%loadloss=1.266	%noloadloss=0.248	xhl=1.835
New	Transformer.05410_G2000YI1900	phases=1	wdg=1	bus=N283701.1	kV=19.9185842870421	kVA=25	wdg=2	bus=G2000YI1900_N283701_sec.1	kV=0.24	kVA=25	%imag=0.5	%loadloss=1.316	%noloadloss=0.198	xhl=1.745
New	Transformer.05410_G2000YI2500	phases=1	wdg=1	bus=N283673.3	kV=19.9185842870421	kVA=25	wdg=2	bus=G2000YI2500_N283673_sec.3	kV=0.24	kVA=25	%imag=0.5	%loadloss=1.316	%noloadloss=0.198	xhl=1.745
New	Transformer.05410_G2000YM2700	phases=1	wdg=1	bus=N283830.1	kV=19.9185842870421	kVA=25	wdg=2	bus=G2000YM2700_N283830_sec.1	kV=0.24	kVA=25	%imag=0.5	%loadloss=1.316	%noloadloss=0.198	xhl=1.745
New	Transformer.05410_G2000YM7400	phases=1	wdg=1	bus=N283825.1	kV=19.9185842870421	kVA=25	wdg=2	bus=G2000YM7400_N283825_sec.1	kV=0.24	kVA=25	%imag=0.5	%loadloss=1.316	%noloadloss=0.198	xhl=1.745
New	Transformer.05410_G2001QI3100	phases=1	wdg=1	bus=N274419.2	kV=7.62102355330306	kVA=50	wdg=2	bus=G2001QI3100_N274419_sec.2	kV=0.24	kVA=50	%imag=0.5	%loadloss=0.877	%noloadloss=0.181	xhl=2.025
New	Transformer.05410_G2001QJ8800	phases=1	wdg=1	bus=N274458.2	kV=7.62102355330306	kVA=50	wdg=2	bus=G2001QJ8800_N274458_sec.2	kV=0.24	kVA=50	%imag=0.5	%loadloss=0.877	%noloadloss=0.181	xhl=2.025
New	Transformer.05410_G2001QN1400	phases=1	wdg=1	bus=N274536.2	kV=7.62102355330306	kVA=50	wdg=2	bus=G2001QN1400_N274536_sec.2	kV=0.24	kVA=50	%imag=0.5	%loadloss=0.877	%noloadloss=0.181	xhl=2.025
New	Transformer.05410_G2001QN1600	phases=1	wdg=1	bus=N274550.2	kV=7.62102355330306	kVA=50	wdg=2	bus=G2001QN1600_N274550_sec.2	kV=0.24	kVA=50	%imag=0.5	%loadloss=0.877	%noloadloss=0.181	xhl=2.025
New	Transformer.05410_G2001QN7500	phases=1	wdg=1	bus=N274552.2	kV=7.62102355330306	kVA=50	wdg=2	bus=G2001QN7500_N274552_sec.2	kV=0.24	kVA=50	%imag=0.5	%loadloss=0.877	%noloadloss=0.181	xhl=2.025
New	Transformer.05410_G2001QO2100	phases=1	wdg=1	bus=N274563.2	kV=7.62102355330306	kVA=100	wdg=2	bus=G2001QO2100_N274563_sec.2	kV=0.24	kVA=100	%imag=0.5	%loadloss=1.3575	%noloadloss=0.131	xhl=3.29
New	Transformer.05410_G2001RB7800	phases=1	wdg=1	bus=N274248.3	kV=19.9185842870421	kVA=100	wdg=2	bus=G2001RB7800_N274248_sec.3	kV=0.24	kVA=100	%imag=0.5	%loadloss=1.3575	%noloadloss=0.131	xhl=3.29
New	Transformer.05410_G2001RG8800	phases=1	wdg=1	bus=N274396.2	kV=7.62102355330306	kVA=50	wdg=2	bus=G2001RG8800_N274396_sec.2	kV=0.24	kVA=50	%imag=0.5	%loadloss=0.877	%noloadloss=0.181	xhl=2.025
New	Transformer.05410_G2001RH0400	phases=1	wdg=1	bus=N274403.2	kV=7.62102355330306	kVA=100	wdg=2	bus=G2001RH0400_N274403_sec.2	kV=0.24	kVA=100	%imag=0.5	%loadloss=1.3575	%noloadloss=0.131	xhl=3.29
New	Transformer.05410_G2001RH4100	phases=1	wdg=1	bus=N274394.2	kV=7.62102355330306	kVA=100	wdg=2	bus=G2001RH4100_N274394_sec.2	kV=0.24	kVA=100	%imag=0.5	%loadloss=1.3575	%noloadloss=0.131	xhl=3.29
New	Transformer.05410_G2001RI6300	phases=1	wdg=1	bus=N1347089.1	kV=7.62102355330306	kVA=50	wdg=2	bus=G2001RI6300_N1347089_sec.1	kV=0.24	kVA=50	%imag=0.5	%loadloss=0.877	%noloadloss=0.181	xhl=2.025
New	Transformer.05410_G2001RJ3400	phases=1	wdg=1	bus=N274458.2	kV=7.62102355330306	kVA=100	wdg=2	bus=G2001RJ3400_N274458_sec.2	kV=0.24	kVA=100	%imag=0.5	%loadloss=1.3575	%noloadloss=0.131	xhl=3.29
New	Transformer.05410_G2001RJ9700	phases=1	wdg=1	bus=N274469.2	kV=7.62102355330306	kVA=50	wdg=2	bus=G2001RJ9700_N274469_sec.2	kV=0.24	kVA=50	%imag=0.5	%loadloss=0.877	%noloadloss=0.181	xhl=2.025
New	Transformer.05410_G2001RL0800	phases=1	wdg=1	bus=N274521.2	kV=7.62102355330306	kVA=100	wdg=2	bus=G2001RL0800_N274521_sec.2	kV=0.24	kVA=100	%imag=0.5	%loadloss=1.3575	%noloadloss=0.131	xhl=3.29
New	Transformer.05410_G2001RM3600	phases=1	wdg=1	bus=N274547.2	kV=7.62102355330306	kVA=100	wdg=2	bus=G2001RM3600_N274547_sec.2	kV=0.24	kVA=100	%imag=0.5	%loadloss=1.3575	%noloadloss=0.131	xhl=3.29
New	Transformer.05410_G2001RM4100	phases=1	wdg=1	bus=N274534.2	kV=7.62102355330306	kVA=25	wdg=2	bus=G2001RM4100_N274534_sec.2	kV=0.24	kVA=25	%imag=0.5	%loadloss=1.266	%noloadloss=0.248	xhl=1.835
New	Transformer.05410_G2001SA1700	phases=1	wdg=1	bus=N274258.3	kV=19.9185842870421	kVA=100	wdg=2	bus=G2001SA1700_N274258_sec.3	kV=0.24	kVA=100	%imag=0.5	%loadloss=1.3575	%noloadloss=0.131	xhl=3.29
New	Transformer.05410_G2001SA7400	phases=1	wdg=1	bus=N274224.3	kV=7.62102355330306	kVA=25	wdg=2	bus=G2001SA7400_N274224_sec.3	kV=0.24	kVA=25	%imag=0.5	%loadloss=1.266	%noloadloss=0.248	xhl=1.835
New	Transformer.05410_G2001SB6900	phases=1	wdg=1	bus=N274277.3	kV=19.9185842870421	kVA=100	wdg=2	bus=G2001SB6900_N274277_sec.3	kV=0.24	kVA=100	%imag=0.5	%loadloss=1.3575	%noloadloss=0.131	xhl=3.29
New	Transformer.05410_G2001SB8200	phases=1	wdg=1	bus=N274258.3	kV=19.9185842870421	kVA=100	wdg=2	bus=G2001SB8200_N274258_sec.3	kV=0.24	kVA=100	%imag=0.5	%loadloss=1.3575	%noloadloss=0.131	xhl=3.29
New	Transformer.05410_G2001SE4900	phases=1	wdg=1	bus=N274364.3	kV=7.62102355330306	kVA=50	wdg=2	bus=G2001SE4900_N274364_sec.3	kV=0.24	kVA=50	%imag=0.5	%loadloss=0.877	%noloadloss=0.181	xhl=2.025
New	Transformer.05410_G2001SH1900	phases=1	wdg=1	bus=N1347089.1	kV=7.62102355330306	kVA=100	wdg=2	bus=G2001SH1900_N1347089_sec.1	kV=0.24	kVA=100	%imag=0.5	%loadloss=1.3575	%noloadloss=0.131	xhl=3.29
New	Transformer.05410_G2001SH3700	phases=1	wdg=1	bus=N274411.1	kV=7.62102355330306	kVA=100	wdg=2	bus=G2001SH3700_N274411_sec.1	kV=0.24	kVA=100	%imag=0.5	%loadloss=1.3575	%noloadloss=0.131	xhl=3.29
New	Transformer.05410_G2001SI2800	phases=1	wdg=1	bus=N274447.1	kV=7.62102355330306	kVA=50	wdg=2	bus=G2001SI2800_N274447_sec.1	kV=0.24	kVA=50	%imag=0.5	%loadloss=0.877	%noloadloss=0.181	xhl=2.025
New	Transformer.05410_G2001SI3300	phases=1	wdg=1	bus=N274448.1	kV=7.62102355330306	kVA=50	wdg=2	bus=G2001SI3300_N274448_sec.1	kV=0.24	kVA=50	%imag=0.5	%loadloss=0.877	%noloadloss=0.181	xhl=2.025
New	Transformer.05410_G2001SI5500	phases=1	wdg=1	bus=N274436.1	kV=7.62102355330306	kVA=100	wdg=2	bus=G2001SI5500_N274436_sec.1	kV=0.24	kVA=100	%imag=0.5	%loadloss=1.3575	%noloadloss=0.131	xhl=3.29
New	Transformer.05410_G2001SJ3800	phases=1	wdg=1	bus=N274488.2	kV=7.62102355330306	kVA=50	wdg=2	bus=G2001SJ3800_N274488_sec.2	kV=0.24	kVA=50	%imag=0.5	%loadloss=0.877	%noloadloss=0.181	xhl=2.025
New	Transformer.05410_G2001SJ5400	phases=1	wdg=1	bus=N274470.1	kV=7.62102355330306	kVA=100	wdg=2	bus=G2001SJ5400_N274470_sec.1	kV=0.24	kVA=100	%imag=0.5	%loadloss=1.3575	%noloadloss=0.131	xhl=3.29
New	Transformer.05410_G2001SL0100	phases=1	wdg=1	bus=N274540.2	kV=7.62102355330306	kVA=100	wdg=2	bus=G2001SL0100_N274540_sec.2	kV=0.24	kVA=100	%imag=0.5	%loadloss=1.3575	%noloadloss=0.131	xhl=3.29
New	Transformer.05410_G2001SL1400	phases=1	wdg=1	bus=N274531.2	kV=7.62102355330306	kVA=100	wdg=2	bus=G2001SL1400_N274531_sec.2	kV=0.24	kVA=100	%imag=0.5	%loadloss=1.3575	%noloadloss=0.131	xhl=3.29
New	Transformer.05410_G2001SL1900	phases=1	wdg=1	bus=N274539.2	kV=7.62102355330306	kVA=50	wdg=2	bus=G2001SL1900_N274539_sec.2	kV=0.24	kVA=50	%imag=0.5	%loadloss=0.877	%noloadloss=0.181	xhl=2.025
New	Transformer.05410_G2001SL6300	phases=1	wdg=1	bus=N274540.2	kV=7.62102355330306	kVA=100	wdg=2	bus=G2001SL6300_N274540_sec.2	kV=0.24	kVA=100	%imag=0.5	%loadloss=1.3575	%noloadloss=0.131	xhl=3.29
New	Transformer.05410_G2001SL9500	phases=1	wdg=1	bus=N284284.2	kV=7.62102355330306	kVA=100	wdg=2	bus=G2001SL9500_N284284_sec.2	kV=0.24	kVA=100	%imag=0.5	%loadloss=1.3575	%noloadloss=0.131	xhl=3.29
New	Transformer.05410_G2001TA6400	phases=1	wdg=1	bus=N274237.3	kV=7.62102355330306	kVA=50	wdg=2	bus=G2001TA6400_N274237_sec.3	kV=0.24	kVA=50	%imag=0.5	%loadloss=0.877	%noloadloss=0.181	xhl=2.025
New	Transformer.05410_G2001TB6700	phases=1	wdg=1	bus=N274269.3	kV=19.9185842870421	kVA=100	wdg=2	bus=G2001TB6700_N274269_sec.3	kV=0.24	kVA=100	%imag=0.5	%loadloss=1.3575	%noloadloss=0.131	xhl=3.29
New	Transformer.05410_G2001TC3700	phases=1	wdg=1	bus=N274281.3	kV=19.9185842870421	kVA=100	wdg=2	bus=G2001TC3700_N274281_sec.3	kV=0.24	kVA=100	%imag=0.5	%loadloss=1.3575	%noloadloss=0.131	xhl=3.29
New	Transformer.05410_G2001TC6700	phases=1	wdg=1	bus=N274291.3	kV=19.9185842870421	kVA=100	wdg=2	bus=G2001TC6700_N274291_sec.3	kV=0.24	kVA=100	%imag=0.5	%loadloss=1.3575	%noloadloss=0.131	xhl=3.29
New	Transformer.05410_G2001TD3700	phases=1	wdg=1	bus=N274305.3	kV=19.9185842870421	kVA=100	wdg=2	bus=G2001TD3700_N274305_sec.3	kV=0.24	kVA=100	%imag=0.5	%loadloss=1.3575	%noloadloss=0.131	xhl=3.29
New	Transformer.05410_G2001TD6700	phases=1	wdg=1	bus=N274321.3	kV=19.9185842870421	kVA=100	wdg=2	bus=G2001TD6700_N274321_sec.3	kV=0.24	kVA=100	%imag=0.5	%loadloss=1.3575	%noloadloss=0.131	xhl=3.29
New	Transformer.05410_G2001TE3200	phases=1	wdg=1	bus=N284042.3	kV=19.9185842870421	kVA=50	wdg=2	bus=G2001TE3200_N284042_sec.3	kV=0.24	kVA=50	%imag=0.5	%loadloss=0.877	%noloadloss=0.181	xhl=2.025
New	Transformer.05410_G2001TE3800	phases=1	wdg=1	bus=N274352.3	kV=7.62102355330306	kVA=50	wdg=2	bus=G2001TE3800_N274352_sec.3	kV=0.24	kVA=50	%imag=0.5	%loadloss=0.877	%noloadloss=0.181	xhl=2.025
New	Transformer.05410_G2001TF3200	phases=1	wdg=1	bus=N284090.3	kV=7.62102355330306	kVA=50	wdg=2	bus=G2001TF3200_N284090_sec.3	kV=0.24	kVA=50	%imag=0.5	%loadloss=0.877	%noloadloss=0.181	xhl=2.025
New	Transformer.05410_G2001TG2100	phases=1	wdg=1	bus=N284104.3	kV=7.62102355330306	kVA=50	wdg=2	bus=G2001TG2100_N284104_sec.3	kV=0.24	kVA=50	%imag=0.5	%loadloss=0.877	%noloadloss=0.181	xhl=2.025
New	Transformer.05410_G2001TH0100	phases=1	wdg=1	bus=N274396.2	kV=7.62102355330306	kVA=25	wdg=2	bus=G2001TH0100_N274396_sec.2	kV=0.24	kVA=25	%imag=0.5	%loadloss=1.266	%noloadloss=0.248	xhl=1.835
New	Transformer.05410_G2001TI4000	phases=1	wdg=1	bus=N284133.2	kV=7.62102355330306	kVA=50	wdg=2	bus=G2001TI4000_N284133_sec.2	kV=0.24	kVA=50	%imag=0.5	%loadloss=0.877	%noloadloss=0.181	xhl=2.025
New	Transformer.05410_G2001TI5600	phases=1	wdg=1	bus=N284162.2	kV=7.62102355330306	kVA=50	wdg=2	bus=G2001TI5600_N284162_sec.2	kV=0.24	kVA=50	%imag=0.5	%loadloss=0.877	%noloadloss=0.181	xhl=2.025
New	Transformer.05410_G2001TI6400	phases=1	wdg=1	bus=N284162.2	kV=7.62102355330306	kVA=25	wdg=2	bus=G2001TI6400_N284162_sec.2	kV=0.24	kVA=25	%imag=0.5	%loadloss=1.266	%noloadloss=0.248	xhl=1.835
New	Transformer.05410_G2001TJ2100	phases=1	wdg=1	bus=N274442.1	kV=7.62102355330306	kVA=50	wdg=2	bus=G2001TJ2100_N274442_sec.1	kV=0.24	kVA=50	%imag=0.5	%loadloss=0.877	%noloadloss=0.181	xhl=2.025
New	Transformer.05410_G2001TL8100	phases=1	wdg=1	bus=N274509.2	kV=7.62102355330306	kVA=25	wdg=2	bus=G2001TL8100_N274509_sec.2	kV=0.24	kVA=25	%imag=0.5	%loadloss=1.316	%noloadloss=0.198	xhl=1.745
New	Transformer.05410_G2001TL8200	phases=1	wdg=1	bus=N274509.2	kV=7.62102355330306	kVA=25	wdg=2	bus=G2001TL8200_N274509_sec.2	kV=0.24	kVA=25	%imag=0.5	%loadloss=1.316	%noloadloss=0.198	xhl=1.745
New	Transformer.05410_G2001UB2100	phases=1	wdg=1	bus=N283965.3	kV=7.62102355330306	kVA=50	wdg=2	bus=G2001UB2100_N283965_sec.3	kV=0.24	kVA=50	%imag=0.5	%loadloss=0.877	%noloadloss=0.181	xhl=2.025
New	Transformer.05410_G2001UB4400	phases=1	wdg=1	bus=N283904.3	kV=7.62102355330306	kVA=100	wdg=2	bus=G2001UB4400_N283904_sec.3	kV=0.24	kVA=100	%imag=0.5	%loadloss=1.3575	%noloadloss=0.131	xhl=3.29
New	Transformer.05410_G2001UC6800	phases=1	wdg=1	bus=N284008.3	kV=7.62102355330306	kVA=100	wdg=2	bus=G2001UC6800_N284008_sec.3	kV=0.24	kVA=100	%imag=0.5	%loadloss=1.3575	%noloadloss=0.131	xhl=3.29
New	Transformer.05410_G2001UD4700	phases=1	wdg=1	bus=N284020.3	kV=7.62102355330306	kVA=100	wdg=2	bus=G2001UD4700_N284020_sec.3	kV=0.24	kVA=100	%imag=0.5	%loadloss=0.856	%noloadloss=0.2135	xhl=2.3495
New	Transformer.05410_G2001UD7700	phases=1	wdg=1	bus=N284028.3	kV=7.62102355330306	kVA=50	wdg=2	bus=G2001UD7700_N284028_sec.3	kV=0.24	kVA=50	%imag=0.5	%loadloss=0.877	%noloadloss=0.181	xhl=2.025
New	Transformer.05410_G2001UD9000	phases=1	wdg=1	bus=N283927.3	kV=7.62102355330306	kVA=100	wdg=2	bus=G2001UD9000_N283927_sec.3	kV=0.24	kVA=100	%imag=0.5	%loadloss=1.3575	%noloadloss=0.131	xhl=3.29
New	Transformer.05410_G2001UE1100	phases=1	wdg=1	bus=N284038.3	kV=19.9185842870421	kVA=50	wdg=2	bus=G2001UE1100_N284038_sec.3	kV=0.24	kVA=50	%imag=0.5	%loadloss=0.877	%noloadloss=0.181	xhl=2.025
New	Transformer.05410_G2001UE3900	phases=1	wdg=1	bus=N284081.3	kV=7.62102355330306	kVA=50	wdg=2	bus=G2001UE3900_N284081_sec.3	kV=0.24	kVA=50	%imag=0.5	%loadloss=0.877	%noloadloss=0.181	xhl=2.025
New	Transformer.05410_G2001UF3600	phases=1	wdg=1	bus=N284081.3	kV=7.62102355330306	kVA=50	wdg=2	bus=G2001UF3600_N284081_sec.3	kV=0.24	kVA=50	%imag=0.5	%loadloss=0.877	%noloadloss=0.181	xhl=2.025
New	Transformer.05410_G2001UF5200	phases=1	wdg=1	bus=N284089.3	kV=7.62102355330306	kVA=50	wdg=2	bus=G2001UF5200_N284089_sec.3	kV=0.24	kVA=50	%imag=0.5	%loadloss=0.877	%noloadloss=0.181	xhl=2.025
New	Transformer.05410_G2001UH9300	phases=1	wdg=1	bus=N284152.1	kV=19.9185842870421	kVA=25	wdg=2	bus=G2001UH9300_N284152_sec.1	kV=0.24	kVA=25	%imag=0.5	%loadloss=1.316	%noloadloss=0.198	xhl=1.745
New	Transformer.05410_G2001UJ5100	phases=1	wdg=1	bus=N284204.2	kV=7.62102355330306	kVA=50	wdg=2	bus=G2001UJ5100_N284204_sec.2	kV=0.24	kVA=50	%imag=0.5	%loadloss=0.877	%noloadloss=0.181	xhl=2.025
New	Transformer.05410_G2001UJ6300	phases=1	wdg=1	bus=N284204.2	kV=7.62102355330306	kVA=50	wdg=2	bus=G2001UJ6300_N284204_sec.2	kV=0.24	kVA=50	%imag=0.5	%loadloss=0.877	%noloadloss=0.181	xhl=2.025
New	Transformer.05410_G2001UK8700	phases=1	wdg=1	bus=N284232.2	kV=7.62102355330306	kVA=100	wdg=2	bus=G2001UK8700_N284232_sec.2	kV=0.24	kVA=100	%imag=0.5	%loadloss=1.3575	%noloadloss=0.131	xhl=3.29
New	Transformer.05410_G2001UL2700	phases=1	wdg=1	bus=N284245.2	kV=7.62102355330306	kVA=25	wdg=2	bus=G2001UL2700_N284245_sec.2	kV=0.24	kVA=25	%imag=0.5	%loadloss=1.266	%noloadloss=0.248	xhl=1.835
New	Transformer.05410_G2001UM7400	phases=1	wdg=1	bus=N284278.2	kV=7.62102355330306	kVA=25	wdg=2	bus=G2001UM7400_N284278_sec.2	kV=0.24	kVA=25	%imag=0.5	%loadloss=1.266	%noloadloss=0.248	xhl=1.835
New	Transformer.05410_G2001VA3800	phases=1	wdg=1	bus=N283914.3	kV=7.62102355330306	kVA=100	wdg=2	bus=G2001VA3800_N283914_sec.3	kV=0.24	kVA=100	%imag=0.5	%loadloss=1.3575	%noloadloss=0.131	xhl=3.29
New	Transformer.05410_G2001VA6200	phases=1	wdg=1	bus=N283902.3	kV=7.62102355330306	kVA=100	wdg=2	bus=G2001VA6200_N283902_sec.3	kV=0.24	kVA=100	%imag=0.5	%loadloss=1.3575	%noloadloss=0.131	xhl=3.29
New	Transformer.05410_G2001VB5300	phases=1	wdg=1	bus=N283949.3	kV=7.62102355330306	kVA=100	wdg=2	bus=G2001VB5300_N283949_sec.3	kV=0.24	kVA=100	%imag=0.5	%loadloss=1.3575	%noloadloss=0.131	xhl=3.29
New	Transformer.05410_G2001VB7800	phases=1	wdg=1	bus=N283967.3	kV=7.62102355330306	kVA=50	wdg=2	bus=G2001VB7800_N283967_sec.3	kV=0.24	kVA=50	%imag=0.5	%loadloss=0.877	%noloadloss=0.181	xhl=2.025
New	Transformer.05410_G2001VC8200	phases=1	wdg=1	bus=N283967.3	kV=7.62102355330306	kVA=100	wdg=2	bus=G2001VC8200_N283967_sec.3	kV=0.24	kVA=100	%imag=0.5	%loadloss=1.3575	%noloadloss=0.131	xhl=3.29
New	Transformer.05410_G2001VD4400	phases=1	wdg=1	bus=N284006.3	kV=7.62102355330306	kVA=100	wdg=2	bus=G2001VD4400_N284006_sec.3	kV=0.24	kVA=100	%imag=0.5	%loadloss=1.3575	%noloadloss=0.131	xhl=3.29
New	Transformer.05410_G2001VD6400	phases=1	wdg=1	bus=N283955.3	kV=7.62102355330306	kVA=100	wdg=2	bus=G2001VD6400_N283955_sec.3	kV=0.24	kVA=100	%imag=0.5	%loadloss=1.3575	%noloadloss=0.131	xhl=3.29
New	Transformer.05410_G2001VD7200	phases=1	wdg=1	bus=N283953.3	kV=7.62102355330306	kVA=50	wdg=2	bus=G2001VD7200_N283953_sec.3	kV=0.24	kVA=50	%imag=0.5	%loadloss=0.877	%noloadloss=0.181	xhl=2.025
New	Transformer.05410_G2001VD8000	phases=1	wdg=1	bus=N283989.3	kV=7.62102355330306	kVA=50	wdg=2	bus=G2001VD8000_N283989_sec.3	kV=0.24	kVA=50	%imag=0.5	%loadloss=0.877	%noloadloss=0.181	xhl=2.025
New	Transformer.05410_G2001VE0100	phases=1	wdg=1	bus=N284048.3	kV=19.9185842870421	kVA=15	wdg=2	bus=G2001VE0100_N284048_sec.3	kV=0.24	kVA=15	%imag=0.5	%loadloss=1.49333333333333	%noloadloss=0.273333333333333	xhl=2.18
New	Transformer.05410_G2001VF4000	phases=1	wdg=1	bus=N284076.3	kV=19.9185842870421	kVA=25	wdg=2	bus=G2001VF4000_N284076_sec.3	kV=0.24	kVA=25	%imag=0.5	%loadloss=1.316	%noloadloss=0.198	xhl=1.745
New	Transformer.05410_G2001VF7400	phases=1	wdg=1	bus=N284093.3	kV=19.9185842870421	kVA=25	wdg=2	bus=G2001VF7400_N284093_sec.3	kV=0.24	kVA=25	%imag=0.5	%loadloss=1.316	%noloadloss=0.198	xhl=1.745
New	Transformer.05410_G2001VF9300	phases=1	wdg=1	bus=N284100.3	kV=19.9185842870421	kVA=50	wdg=2	bus=G2001VF9300_N284100_sec.3	kV=0.24	kVA=50	%imag=0.5	%loadloss=1.134	%noloadloss=0.181	xhl=1.965
New	Transformer.05410_G2001VG6500	phases=1	wdg=1	bus=N284122.3	kV=19.9185842870421	kVA=15	wdg=2	bus=G2001VG6500_N284122_sec.3	kV=0.24	kVA=15	%imag=0.5	%loadloss=1.49333333333333	%noloadloss=0.273333333333333	xhl=2.18
New	Transformer.05410_G2001VG7500	phases=1	wdg=1	bus=N284121.1	kV=19.9185842870421	kVA=25	wdg=2	bus=G2001VG7500_N284121_sec.1	kV=0.24	kVA=25	%imag=0.5	%loadloss=1.316	%noloadloss=0.198	xhl=1.745
New	Transformer.05410_G2001VH7600	phases=1	wdg=1	bus=N284172.3	kV=19.9185842870421	kVA=50	wdg=2	bus=G2001VH7600_N284172_sec.3	kV=0.24	kVA=50	%imag=0.5	%loadloss=0.877	%noloadloss=0.181	xhl=2.025
New	Transformer.05410_G2001VH9900	phases=1	wdg=1	bus=N284172.3	kV=19.9185842870421	kVA=50	wdg=2	bus=G2001VH9900_N284172_sec.3	kV=0.24	kVA=50	%imag=0.5	%loadloss=0.877	%noloadloss=0.181	xhl=2.025
New	Transformer.05410_G2001VI5200	phases=1	wdg=1	bus=N284181.2	kV=7.62102355330306	kVA=100	wdg=2	bus=G2001VI5200_N284181_sec.2	kV=0.24	kVA=100	%imag=0.5	%loadloss=1.3575	%noloadloss=0.131	xhl=3.29
New	Transformer.05410_G2001VK3300	phases=1	wdg=1	bus=N284221.2	kV=7.62102355330306	kVA=50	wdg=2	bus=G2001VK3300_N284221_sec.2	kV=0.24	kVA=50	%imag=0.5	%loadloss=0.877	%noloadloss=0.181	xhl=2.025
New	Transformer.05410_G2001VK4000	phases=1	wdg=1	bus=N284221.2	kV=7.62102355330306	kVA=50	wdg=2	bus=G2001VK4000_N284221_sec.2	kV=0.24	kVA=50	%imag=0.5	%loadloss=0.877	%noloadloss=0.181	xhl=2.025
New	Transformer.05410_G2001VK9500	phases=1	wdg=1	bus=N284225.2	kV=7.62102355330306	kVA=25	wdg=2	bus=G2001VK9500_N284225_sec.2	kV=0.24	kVA=25	%imag=0.5	%loadloss=1.266	%noloadloss=0.248	xhl=1.835
New	Transformer.05410_G2001WA2400	phases=1	wdg=1	bus=N283917.3	kV=7.62102355330306	kVA=50	wdg=2	bus=G2001WA2400_N283917_sec.3	kV=0.24	kVA=50	%imag=0.5	%loadloss=0.877	%noloadloss=0.181	xhl=2.025
New	Transformer.05410_G2001WB3100	phases=1	wdg=1	bus=N283924.3	kV=7.62102355330306	kVA=100	wdg=2	bus=G2001WB3100_N283924_sec.3	kV=0.24	kVA=100	%imag=0.5	%loadloss=1.3575	%noloadloss=0.131	xhl=3.29
New	Transformer.05410_G2001WB8800	phases=1	wdg=1	bus=N283948.3	kV=7.62102355330306	kVA=100	wdg=2	bus=G2001WB8800_N283948_sec.3	kV=0.24	kVA=100	%imag=0.5	%loadloss=1.3575	%noloadloss=0.131	xhl=3.29
New	Transformer.05410_G2001WB9000	phases=1	wdg=1	bus=N283924.3	kV=7.62102355330306	kVA=100	wdg=2	bus=G2001WB9000_N283924_sec.3	kV=0.24	kVA=100	%imag=0.5	%loadloss=1.3575	%noloadloss=0.131	xhl=3.29
New	Transformer.05410_G2001WC3900	phases=1	wdg=1	bus=N284043.3	kV=7.62102355330306	kVA=100	wdg=2	bus=G2001WC3900_N284043_sec.3	kV=0.24	kVA=100	%imag=0.5	%loadloss=1.3575	%noloadloss=0.131	xhl=3.29
New	Transformer.05410_G2001WC7300	phases=1	wdg=1	bus=N283986.3	kV=7.62102355330306	kVA=100	wdg=2	bus=G2001WC7300_N283986_sec.3	kV=0.24	kVA=100	%imag=0.5	%loadloss=1.3575	%noloadloss=0.131	xhl=3.29
New	Transformer.05410_G2001WD4700	phases=1	wdg=1	bus=N284012.3	kV=7.62102355330306	kVA=50	wdg=2	bus=G2001WD4700_N284012_sec.3	kV=0.24	kVA=50	%imag=0.5	%loadloss=0.877	%noloadloss=0.181	xhl=2.025
New	Transformer.05410_G2001WD5300	phases=1	wdg=1	bus=N284012.3	kV=7.62102355330306	kVA=50	wdg=2	bus=G2001WD5300_N284012_sec.3	kV=0.24	kVA=50	%imag=0.5	%loadloss=0.877	%noloadloss=0.181	xhl=2.025
New	Transformer.05410_G2001WE0200	phases=1	wdg=1	bus=N284057.3	kV=7.62102355330306	kVA=100	wdg=2	bus=G2001WE0200_N284057_sec.3	kV=0.24	kVA=100	%imag=0.5	%loadloss=1.3575	%noloadloss=0.131	xhl=3.29
New	Transformer.05410_G2001WE2200	phases=1	wdg=1	bus=N1300455.1	kV=19.9185842870421	kVA=50	wdg=2	bus=G2001WE2200_N1300455_sec.1	kV=0.24	kVA=50	%imag=0.5	%loadloss=0.877	%noloadloss=0.181	xhl=2.025
New	Transformer.05410_G2001WE7200	phases=1	wdg=1	bus=N1300454.1	kV=19.9185842870421	kVA=50	wdg=2	bus=G2001WE7200_N1300454_sec.1	kV=0.24	kVA=50	%imag=0.5	%loadloss=0.877	%noloadloss=0.181	xhl=2.025
New	Transformer.05410_G2001WF0900	phases=1	wdg=1	bus=N284084.1	kV=19.9185842870421	kVA=15	wdg=2	bus=G2001WF0900_N284084_sec.1	kV=0.24	kVA=15	%imag=0.5	%loadloss=1.49333333333333	%noloadloss=0.273333333333333	xhl=2.18
New	Transformer.05410_G2001WF4800	phases=1	wdg=1	bus=N284097.2	kV=19.9185842870421	kVA=25	wdg=2	bus=G2001WF4800_N284097_sec.2	kV=0.24	kVA=25	%imag=0.5	%loadloss=1.316	%noloadloss=0.198	xhl=1.745
New	Transformer.05410_G2001WF7000	phases=1	wdg=1	bus=N284116.3	kV=19.9185842870421	kVA=15	wdg=2	bus=G2001WF7000_N284116_sec.3	kV=0.24	kVA=15	%imag=0.5	%loadloss=1.49333333333333	%noloadloss=0.273333333333333	xhl=2.18
New	Transformer.05410_G2001WG1100	phases=1	wdg=1	bus=N284110.3	kV=19.9185842870421	kVA=25	wdg=2	bus=G2001WG1100_N284110_sec.3	kV=0.24	kVA=25	%imag=0.5	%loadloss=1.316	%noloadloss=0.198	xhl=1.745
New	Transformer.05410_G2001WG8300	phases=1	wdg=1	bus=N284116.3	kV=19.9185842870421	kVA=50	wdg=2	bus=G2001WG8300_N284116_sec.3	kV=0.24	kVA=50	%imag=0.5	%loadloss=1.134	%noloadloss=0.181	xhl=1.965
New	Transformer.05410_G2001WG9900	phases=1	wdg=1	bus=N284129.3	kV=19.9185842870421	kVA=50	wdg=2	bus=G2001WG9900_N284129_sec.3	kV=0.24	kVA=50	%imag=0.5	%loadloss=1.134	%noloadloss=0.181	xhl=1.965
New	Transformer.05410_G2001WI1100	phases=1	wdg=1	bus=N284195.3	kV=19.9185842870421	kVA=50	wdg=2	bus=G2001WI1100_N284195_sec.3	kV=0.24	kVA=50	%imag=0.5	%loadloss=0.877	%noloadloss=0.181	xhl=2.025
New	Transformer.05410_G2001WI7900	phases=1	wdg=1	bus=N284195.3	kV=19.9185842870421	kVA=50	wdg=2	bus=G2001WI7900_N284195_sec.3	kV=0.24	kVA=50	%imag=0.5	%loadloss=0.877	%noloadloss=0.181	xhl=2.025
New	Transformer.05410_G2001WJ2500	phases=1	wdg=1	bus=N284208.2	kV=7.62102355330306	kVA=50	wdg=2	bus=G2001WJ2500_N284208_sec.2	kV=0.24	kVA=50	%imag=0.5	%loadloss=0.877	%noloadloss=0.181	xhl=2.025
New	Transformer.05410_G2001WJ5200	phases=1	wdg=1	bus=N284200.2	kV=7.62102355330306	kVA=50	wdg=2	bus=G2001WJ5200_N284200_sec.2	kV=0.24	kVA=50	%imag=0.5	%loadloss=0.877	%noloadloss=0.181	xhl=2.025
New	Transformer.05410_G2001WJ8500	phases=1	wdg=1	bus=N284214.3	kV=19.9185842870421	kVA=100	wdg=2	bus=G2001WJ8500_N284214_sec.3	kV=0.24	kVA=100	%imag=0.5	%loadloss=1.3575	%noloadloss=0.131	xhl=3.29
New	Transformer.05410_G2001WL3500	phases=1	wdg=1	bus=N284250.2	kV=7.62102355330306	kVA=25	wdg=2	bus=G2001WL3500_N284250_sec.2	kV=0.24	kVA=25	%imag=0.5	%loadloss=1.266	%noloadloss=0.248	xhl=1.835
New	Transformer.05410_G2001WL4600	phases=1	wdg=1	bus=N284250.2	kV=7.62102355330306	kVA=25	wdg=2	bus=G2001WL4600_N284250_sec.2	kV=0.24	kVA=25	%imag=0.5	%loadloss=1.266	%noloadloss=0.248	xhl=1.835
New	Transformer.05410_G2001WM9100	phases=1	wdg=1	bus=N284260.1	kV=19.9185842870421	kVA=25	wdg=2	bus=G2001WM9100_N284260_sec.1	kV=0.24	kVA=25	%imag=0.5	%loadloss=1.316	%noloadloss=0.198	xhl=1.745
New	Transformer.05410_G2001XA3300	phases=1	wdg=1	bus=N283909.3	kV=7.62102355330306	kVA=50	wdg=2	bus=G2001XA3300_N283909_sec.3	kV=0.24	kVA=50	%imag=0.5	%loadloss=0.877	%noloadloss=0.181	xhl=2.025
New	Transformer.05410_G2001XB6700	phases=1	wdg=1	bus=N283943.3	kV=7.62102355330306	kVA=100	wdg=2	bus=G2001XB6700_N283943_sec.3	kV=0.24	kVA=100	%imag=0.5	%loadloss=1.3575	%noloadloss=0.131	xhl=3.29
New	Transformer.05410_G2001XC3700	phases=1	wdg=1	bus=N283971.3	kV=7.62102355330306	kVA=100	wdg=2	bus=G2001XC3700_N283971_sec.3	kV=0.24	kVA=100	%imag=0.5	%loadloss=1.3575	%noloadloss=0.131	xhl=3.29
New	Transformer.05410_G2001XC7500	phases=1	wdg=1	bus=N283961.3	kV=7.62102355330306	kVA=50	wdg=2	bus=G2001XC7500_N283961_sec.3	kV=0.24	kVA=50	%imag=0.5	%loadloss=0.877	%noloadloss=0.181	xhl=2.025
New	Transformer.05410_G2001XD7800	phases=1	wdg=1	bus=N284029.1	kV=19.9185842870421	kVA=10	wdg=2	bus=G2001XD7800_N284029_sec.1	kV=0.24	kVA=10	%imag=0.5	%loadloss=1.4	%noloadloss=0.325	xhl=1.575
...
!New	Transformer.05410_G2100FB8800_2	phases=1	wdg=1	bus=N292140.3	kV=19.9185842870421	kVA=15	wdg=2	bus=G2100FB8800_N292140_sec.3	kV=0.24	kVA=15	%imag=0.5	%loadloss=1.49333333333333	%noloadloss=0.273333333333333	xhl=2.18
New	Transformer.05410_G2100FE2600	phases=3	wdg=1	bus=N292234.1.2.3	kV=34.5	kVA=300	wdg=2	bus=G2100FE2600_N292234_sec.1.2.3	kV=0.480	kVA=300	%imag=0.5	%loadloss=0.818166666666667	%noloadloss=0.1525	xhl=3.505
New	Transformer.05410_G2100FE5400	phases=3	wdg=1	bus=N292228.1.2.3	kV=34.5	kVA=150	wdg=2	bus=G2100FE5400_N292228_sec.1.2.3	kV=0.480	kVA=150	%imag=0.5	%loadloss=0.915666666666667	%noloadloss=0.154666666666667	xhl=2.9
New	Transformer.05410_G2100FF2000	phases=3	wdg=1	bus=N292242.1.2.3	kV=34.5	kVA=150	wdg=2	bus=G2100FF2000_N292242_sec.1.2.3	kV=0.480	kVA=150	%imag=0.5	%loadloss=0.915666666666667	%noloadloss=0.154666666666667	xhl=2.9
New	Transformer.05410_G2100FF6200	phases=3	wdg=1	bus=N292242.1.2.3	kV=34.5	kVA=300	wdg=2	bus=G2100FF6200_N292242_sec.1.2.3	kV=0.480	kVA=300	%imag=0.5	%loadloss=0.818166666666667	%noloadloss=0.1525	xhl=3.505
New	Transformer.05410_G2100FG0000	phases=3	wdg=1	bus=N292260.1.2.3	kV=34.5	kVA=300	wdg=2	bus=G2100FG0000_N292260_sec.1.2.3	kV=0.480	kVA=300	%imag=0.5	%loadloss=0.818166666666667	%noloadloss=0.1525	xhl=3.505
New	Transformer.05410_G2100FG1700	phases=3	wdg=1	bus=N292304.1.2.3	kV=34.5	kVA=300	wdg=2	bus=G2100FG1700_N292304_sec.1.2.3	kV=0.480	kVA=300	%imag=0.5	%loadloss=0.818166666666667	%noloadloss=0.1525	xhl=3.505
New	Transformer.05410_G2100FH2300	phases=1	wdg=1	bus=N292269.3	kV=19.9185842870421	kVA=15	wdg=2	bus=G2100FH2300_N292269_sec.3	kV=0.24	kVA=15	%imag=0.5	%loadloss=1.49333333333333	%noloadloss=0.273333333333333	xhl=2.18
New	Transformer.05410_G2100FH3200	phases=3	wdg=1	bus=N292302.1.2.3	kV=34.5	kVA=300	wdg=2	bus=G2100FH3200_N292302_sec.1.2.3	kV=0.480	kVA=300	%imag=0.5	%loadloss=0.818166666666667	%noloadloss=0.1525	xhl=3.505
New	Transformer.05410_G2100FI2200	phases=1	wdg=1	bus=N292320.2	kV=19.9185842870421	kVA=50	wdg=2	bus=G2100FI2200_N292320_sec.2	kV=0.24	kVA=50	%imag=0.5	%loadloss=0.877	%noloadloss=0.181	xhl=2.025
New	Transformer.05410_G2100FI8100	phases=3	wdg=1	bus=N292302.1.2.3	kV=34.5	kVA=300	wdg=2	bus=G2100FI8100_N292302_sec.1.2.3	kV=0.480	kVA=300	%imag=0.5	%loadloss=0.818166666666667	%noloadloss=0.1525	xhl=3.505
New	Transformer.05410_G2100FJ2800	phases=1	wdg=1	bus=N292373.2	kV=19.9185842870421	kVA=50	wdg=2	bus=G2100FJ2800_N292373_sec.2	kV=0.24	kVA=50	%imag=0.5	%loadloss=0.877	%noloadloss=0.181	xhl=2.025
New	Transformer.05410_G2100FJ3800	phases=3	wdg=1	bus=N292380.1.2.3	kV=34.5	kVA=500	wdg=2	bus=G2100FJ3800_N292380_sec.1.2.3	kV=0.480	kVA=500	%imag=0.5	%loadloss=0.7732	%noloadloss=0.1563	xhl=3.675
New	Transformer.05410_G2100FJ4400	phases=3	wdg=1	bus=N292396.1.2.3	kV=34.5	kVA=150	wdg=2	bus=G2100FJ4400_N292396_sec.1.2.3	kV=0.480	kVA=150	%imag=0.5	%loadloss=0.915666666666667	%noloadloss=0.154666666666667	xhl=2.9
New	Transformer.05410_G2100FK5800	phases=1	wdg=1	bus=N292373.2	kV=19.9185842870421	kVA=75	wdg=2	bus=G2100FK5800_N292373_sec.2	kV=0.24	kVA=75	%imag=0.5	%loadloss=1.11725	%noloadloss=0.156	xhl=2.6575
New	Transformer.05410_G2100FK6600	phases=1	wdg=1	bus=N292401.1	kV=19.9185842870421	kVA=15	wdg=2	bus=G2100FK6600_N292401_sec.1	kV=0.24	kVA=15	%imag=0.5	%loadloss=1.49333333333333	%noloadloss=0.273333333333333	xhl=2.18
New	Transformer.05410_G2100FK9800	phases=1	wdg=1	bus=N292385.1	kV=19.9185842870421	kVA=167	wdg=2	bus=G2100FK9800_N292385_sec.1	kV=0.24	kVA=167	%imag=0.5	%loadloss=0.833532934131737	%noloadloss=0.161976047904192	xhl=2.355
New	Transformer.05410_G2100FL0800	phases=1	wdg=1	bus=N292417.3	kV=19.9185842870421	kVA=100	wdg=2	bus=G2100FL0800_N292417_sec.3	kV=0.24	kVA=100	%imag=0.5	%loadloss=1.3575	%noloadloss=0.131	xhl=3.29
New	Transformer.05410_G2100FL1200	phases=3	wdg=1	bus=N292405.1.2.3	kV=34.5	kVA=150	wdg=2	bus=G2100FL1200_N292405_sec.1.2.3	kV=0.480	kVA=150	%imag=0.5	%loadloss=0.915666666666667	%noloadloss=0.154666666666667	xhl=2.9
New	Transformer.05410_G2100FL3500	phases=1	wdg=1	bus=N292410.2	kV=19.9185842870421	kVA=50	wdg=2	bus=G2100FL3500_N292410_sec.2	kV=0.24	kVA=50	%imag=0.5	%loadloss=1.134	%noloadloss=0.181	xhl=1.965
New	Transformer.05410_G2100FL6300	phases=1	wdg=1	bus=N292402.3	kV=19.9185842870421	kVA=10	wdg=2	bus=G2100FL6300_N292402_sec.3	kV=0.24	kVA=10	%imag=0.5	%loadloss=1.4	%noloadloss=0.325	xhl=1.575
New	Transformer.05410_G2100FM1500	phases=1	wdg=1	bus=N292431.3	kV=19.9185842870421	kVA=15	wdg=2	bus=G2100FM1500_N292431_sec.3	kV=0.24	kVA=15	%imag=0.5	%loadloss=1.49333333333333	%noloadloss=0.273333333333333	xhl=2.18
New	Transformer.05410_G2100FN7600	phases=3	wdg=1	bus=N292486.1.2.3	kV=34.5	kVA=500	wdg=2	bus=G2100FN7600_N292486_sec.1.2.3	kV=0.480	kVA=500	%imag=0.5	%loadloss=0.7732	%noloadloss=0.1563	xhl=3.675
New	Transformer.05410_G2100FO1600	phases=1	wdg=1	bus=N292502.3	kV=19.9185842870421	kVA=100	wdg=2	bus=G2100FO1600_N292502_sec.3	kV=0.24	kVA=100	%imag=0.5	%loadloss=1.3575	%noloadloss=0.131	xhl=3.29
New	Transformer.05410_G2100FO1700	phases=1	wdg=1	bus=N292522.3	kV=19.9185842870421	kVA=100	wdg=2	bus=G2100FO1700_N292522_sec.3	kV=0.24	kVA=100	%imag=0.5	%loadloss=1.3575	%noloadloss=0.131	xhl=3.29
New	Transformer.05410_G2100FO3000	phases=3	wdg=1	bus=N292507.1.2.3	kV=34.5	kVA=150	wdg=2	bus=G2100FO3000_N292507_sec.1.2.3	kV=0.480	kVA=150	%imag=0.5	%loadloss=1.134	%noloadloss=0.181	xhl=1.965
New	Transformer.05410_G2100FO5600	phases=3	wdg=1	bus=N292520.1.2.3	kV=34.5	kVA=150	wdg=2	bus=G2100FO5600_N292520_sec.1.2.3	kV=0.480	kVA=150	%imag=0.5	%loadloss=1.134	%noloadloss=0.181	xhl=1.965
New	Transformer.05410_G2100GF1700	phases=3	wdg=1	bus=N292259.1.2.3	kV=34.5	kVA=300	wdg=2	bus=G2100GF1700_N292259_sec.1.2.3	kV=0.480	kVA=300	%imag=0.5	%loadloss=0.818166666666667	%noloadloss=0.1525	xhl=3.505
New	Transformer.05410_G2100GF5300	phases=3	wdg=1	bus=N292267.1.2.3	kV=34.5	kVA=150	wdg=2	bus=G2100GF5300_N292267_sec.1.2.3	kV=0.480	kVA=150	%imag=0.5	%loadloss=1.134	%noloadloss=0.181	xhl=1.965
New	Transformer.05410_G2100GF8600	phases=3	wdg=1	bus=N292253.1.2.3	kV=34.5	kVA=75	wdg=2	bus=G2100GF8600_N292253_sec.1.2.3	kV=0.480	kVA=75	%imag=0.5	%loadloss=1.316	%noloadloss=0.198	xhl=1.745
New	Transformer.05410_G2100GF8700	phases=1	wdg=1	bus=N292256.1	kV=19.9185842870421	kVA=25	wdg=2	bus=G2100GF8700_N292256_sec.1	kV=0.24	kVA=25	%imag=0.5	%loadloss=1.316	%noloadloss=0.198	xhl=1.745
New	Transformer.05410_G2100GF9000	phases=1	wdg=1	bus=N292246.1	kV=19.9185842870421	kVA=15	wdg=2	bus=G2100GF9000_N292246_sec.1	kV=0.24	kVA=15	%imag=0.5	%loadloss=1.49333333333333	%noloadloss=0.273333333333333	xhl=2.18
New	Transformer.05410_G2100GG7300	phases=1	wdg=1	bus=N292303.3	kV=19.9185842870421	kVA=15	wdg=2	bus=G2100GG7300_N292303_sec.3	kV=0.24	kVA=15	%imag=0.5	%loadloss=1.49333333333333	%noloadloss=0.273333333333333	xhl=2.18
New	Transformer.05410_G2100GG8400	phases=1	wdg=1	bus=N292299.3	kV=19.9185842870421	kVA=25	wdg=2	bus=G2100GG8400_N292299_sec.3	kV=0.24	kVA=25	%imag=0.5	%loadloss=1.316	%noloadloss=0.198	xhl=1.745
New	Transformer.05410_G2100GH2300	phases=1	wdg=1	bus=N292309.3	kV=19.9185842870421	kVA=15	wdg=2	bus=G2100GH2300_N292309_sec.3	kV=0.24	kVA=15	%imag=0.5	%loadloss=1.49333333333333	%noloadloss=0.273333333333333	xhl=2.18
New	Transformer.05410_G2100GI2700	phases=1	wdg=1	bus=N292330.3	kV=19.9185842870421	kVA=25	wdg=2	bus=G2100GI2700_N292330_sec.3	kV=0.24	kVA=25	%imag=0.5	%loadloss=1.316	%noloadloss=0.198	xhl=1.745
New	Transformer.05410_G2100GI5400	phases=3	wdg=1	bus=N292325.1.2.3	kV=34.5	kVA=150	wdg=2	bus=G2100GI5400_N292325_sec.1.2.3	kV=0.480	kVA=150	%imag=0.5	%loadloss=0.915666666666667	%noloadloss=0.154666666666667	xhl=2.9
New	Transformer.05410_G2100GJ1600	phases=1	wdg=1	bus=N292364.1	kV=19.9185842870421	kVA=100	wdg=2	bus=G2100GJ1600_N292364_sec.1	kV=0.24	kVA=100	%imag=0.5	%loadloss=1.3575	%noloadloss=0.131	xhl=3.29
New	Transformer.05410_G2100GJ2300	phases=3	wdg=1	bus=N292354.1.2.3	kV=34.5	kVA=300	wdg=2	bus=G2100GJ2300_N292354_sec.1.2.3	kV=0.480	kVA=300	%imag=0.5	%loadloss=0.818166666666667	%noloadloss=0.1525	xhl=3.505
New	Transformer.05410_G2100GJ2600	phases=3	wdg=1	bus=N292359.1.2.3	kV=34.5	kVA=150	wdg=2	bus=G2100GJ2600_N292359_sec.1.2.3	kV=0.480	kVA=150	%imag=0.5	%loadloss=0.915666666666667	%noloadloss=0.154666666666667	xhl=2.9
New	Transformer.05410_G2100GJ8900	phases=1	wdg=1	bus=N292370.2	kV=19.9185842870421	kVA=50	wdg=2	bus=G2100GJ8900_N292370_sec.2	kV=0.24	kVA=50	%imag=0.5	%loadloss=1.134	%noloadloss=0.181	xhl=1.965
New	Transformer.05410_G2100GJ9100	phases=3	wdg=1	bus=N292332.1.2.3	kV=34.5	kVA=150	wdg=2	bus=G2100GJ9100_N292332_sec.1.2.3	kV=0.480	kVA=150	%imag=0.5	%loadloss=0.915666666666667	%noloadloss=0.154666666666667	xhl=2.9
New	Transformer.05410_G2100GJ9500	phases=3	wdg=1	bus=N292365.1.2.3	kV=34.5	kVA=500	wdg=2	bus=G2100GJ9500_N292365_sec.1.2.3	kV=0.480	kVA=500	%imag=0.5	%loadloss=0.7732	%noloadloss=0.1563	xhl=3.675
New	Transformer.05410_G2100GK5700	phases=3	wdg=1	bus=N292395.1.2.3	kV=34.5	kVA=75	wdg=2	bus=G2100GK5700_N292395_sec.1.2.3	kV=0.480	kVA=75	%imag=0.5	%loadloss=1.316	%noloadloss=0.198	xhl=1.745
New	Transformer.05410_G2100GK6700	phases=3	wdg=1	bus=N292395.1.2.3	kV=34.5	kVA=150	wdg=2	bus=G2100GK6700_N292395_sec.1.2.3	kV=0.480	kVA=150	%imag=0.5	%loadloss=1.134	%noloadloss=0.181	xhl=1.965
New	Transformer.05410_G2100GK8000	phases=1	wdg=1	bus=N292386.1	kV=19.9185842870421	kVA=50	wdg=2	bus=G2100GK8000_N292386_sec.1	kV=0.24	kVA=50	%imag=0.5	%loadloss=1.134	%noloadloss=0.181	xhl=1.965
New	Transformer.05410_G2100GK8200	phases=3	wdg=1	bus=N292379.1.2.3	kV=34.5	kVA=150	wdg=2	bus=G2100GK8200_N292379_sec.1.2.3	kV=0.480	kVA=150	%imag=0.5	%loadloss=1.134	%noloadloss=0.181	xhl=1.965
New	Transformer.05410_G2100GL2400	phases=3	wdg=1	bus=N292406.1.2.3	kV=34.5	kVA=150	wdg=2	bus=G2100GL2400_N292406_sec.1.2.3	kV=0.480	kVA=150	%imag=0.5	%loadloss=0.915666666666667	%noloadloss=0.154666666666667	xhl=2.9
New	Transformer.05410_G2100GM1700	phases=3	wdg=1	bus=N292446.1.2.3	kV=34.5	kVA=150	wdg=2	bus=G2100GM1700_N292446_sec.1.2.3	kV=0.480	kVA=150	%imag=0.5	%loadloss=0.915666666666667	%noloadloss=0.154666666666667	xhl=2.9
New	Transformer.05410_G2100GM5300	phases=3	wdg=1	bus=N292446.1.2.3	kV=34.5	kVA=150	wdg=2	bus=G2100GM5300_N292446_sec.1.2.3	kV=0.480	kVA=150	%imag=0.5	%loadloss=0.915666666666667	%noloadloss=0.154666666666667	xhl=2.9
New	Transformer.05410_G2100GM6700	phases=3	wdg=1	bus=N292446.1.2.3	kV=34.5	kVA=300	wdg=2	bus=G2100GM6700_N292446_sec.1.2.3	kV=0.480	kVA=300	%imag=0.5	%loadloss=0.818166666666667	%noloadloss=0.1525	xhl=3.505
New	Transformer.05410_G2100GM9700	phases=1	wdg=1	bus=N292423.3	kV=19.9185842870421	kVA=250	wdg=2	bus=G2100GM9700_N292423_sec.3	kV=0.24	kVA=250	%imag=0.5	%loadloss=0.465	%noloadloss=0.1322	xhl=3
New	Transformer.05410_G2100GN0400	phases=1	wdg=1	bus=N292471.1	kV=19.9185842870421	kVA=167	wdg=2	bus=G2100GN0400_N292471_sec.1	kV=0.24	kVA=167	%imag=0.5	%loadloss=0.833532934131737	%noloadloss=0.161976047904192	xhl=2.355
New	Transformer.05410_G2100GN1400	phases=1	wdg=1	bus=N292471.1	kV=19.9185842870421	kVA=100	wdg=2	bus=G2100GN1400_N292471_sec.1	kV=0.24	kVA=100	%imag=0.5	%loadloss=1.3575	%noloadloss=0.131	xhl=3.29
New	Transformer.05410_G2100GN2400	phases=1	wdg=1	bus=N292466.1	kV=19.9185842870421	kVA=167	wdg=2	bus=G2100GN2400_N292466_sec.1	kV=0.24	kVA=167	%imag=0.5	%loadloss=0.833532934131737	%noloadloss=0.161976047904192	xhl=2.355
New	Transformer.05410_G2100GN4300	phases=1	wdg=1	bus=N292461.1	kV=19.9185842870421	kVA=100	wdg=2	bus=G2100GN4300_N292461_sec.1	kV=0.24	kVA=100	%imag=0.5	%loadloss=1.3575	%noloadloss=0.131	xhl=3.29
New	Transformer.05410_G2100GN4600	phases=1	wdg=1	bus=N292459.1	kV=19.9185842870421	kVA=100	wdg=2	bus=G2100GN4600_N292459_sec.1	kV=0.24	kVA=100	%imag=0.5	%loadloss=1.3575	%noloadloss=0.131	xhl=3.29
New	Transformer.05410_G2100GN7300	phases=1	wdg=1	bus=N292464.1	kV=19.9185842870421	kVA=50	wdg=2	bus=G2100GN7300_N292464_sec.1	kV=0.24	kVA=50	%imag=0.5	%loadloss=0.877	%noloadloss=0.181	xhl=2.025
New	Transformer.05410_G2100GN7600	phases=1	wdg=1	bus=N292474.1	kV=19.9185842870421	kVA=50	wdg=2	bus=G2100GN7600_N292474_sec.1	kV=0.24	kVA=50	%imag=0.5	%loadloss=0.877	%noloadloss=0.181	xhl=2.025
New	Transformer.05410_G2100GN8800	phases=1	wdg=1	bus=N292512.1	kV=19.9185842870421	kVA=50	wdg=2	bus=G2100GN8800_N292512_sec.1	kV=0.24	kVA=50	%imag=0.5	%loadloss=0.877	%noloadloss=0.181	xhl=2.025
New	Transformer.05410_G2100GO2400	phases=1	wdg=1	bus=N292515.3	kV=19.9185842870421	kVA=100	wdg=2	bus=G2100GO2400_N292515_sec.3	kV=0.24	kVA=100	%imag=0.5	%loadloss=1.3575	%noloadloss=0.131	xhl=3.29
New	Transformer.05410_G2100GO3300	phases=1	wdg=1	bus=N292513.1	kV=19.9185842870421	kVA=100	wdg=2	bus=G2100GO3300_N292513_sec.1	kV=0.24	kVA=100	%imag=0.5	%loadloss=1.3575	%noloadloss=0.131	xhl=3.29
New	Transformer.05410_G2100GO5000	phases=3	wdg=1	bus=N292503.1.2.3	kV=34.5	kVA=150	wdg=2	bus=G2100GO5000_N292503_sec.1.2.3	kV=0.480	kVA=150	%imag=0.5	%loadloss=0.915666666666667	%noloadloss=0.154666666666667	xhl=2.9
New	Transformer.05410_G2100GO6100	phases=1	wdg=1	bus=N292504.1	kV=19.9185842870421	kVA=100	wdg=2	bus=G2100GO6100_N292504_sec.1	kV=0.24	kVA=100	%imag=0.5	%loadloss=1.3575	%noloadloss=0.131	xhl=3.29
New	Transformer.05410_G2100GO7200	phases=3	wdg=1	bus=N292517.1.2.3	kV=34.5	kVA=750	wdg=2	bus=G2100GO7200_N292517_sec.1.2.3	kV=0.480	kVA=750	%imag=0.5	%loadloss=0.706	%noloadloss=0.1492	xhl=5.27
New	Transformer.05410_G2100GP1100	phases=1	wdg=1	bus=N292528.3	kV=19.9185842870421	kVA=100	wdg=2	bus=G2100GP1100_N292528_sec.3	kV=0.24	kVA=100	%imag=0.5	%loadloss=1.3575	%noloadloss=0.131	xhl=3.29
New	Transformer.05410_G2100GP2100	phases=3	wdg=1	bus=N292531.1.2.3	kV=34.5	kVA=150	wdg=2	bus=G2100GP2100_N292531_sec.1.2.3	kV=0.480	kVA=150	%imag=0.5	%loadloss=1.134	%noloadloss=0.181	xhl=1.965
New	Transformer.05410_G2100HE0400	phases=3	wdg=1	bus=N292223.1.2.3	kV=34.5	kVA=150	wdg=2	bus=G2100HE0400_N292223_sec.1.2.3	kV=0.480	kVA=150	%imag=0.5	%loadloss=0.915666666666667	%noloadloss=0.154666666666667	xhl=2.9
New	Transformer.05410_G2100HE1900	phases=3	wdg=1	bus=N292218.1.2.3	kV=34.5	kVA=300	wdg=2	bus=G2100HE1900_N292218_sec.1.2.3	kV=0.480	kVA=300	%imag=0.5	%loadloss=0.818166666666667	%noloadloss=0.1525	xhl=3.505
New	Transformer.05410_G2100HE3000	phases=3	wdg=1	bus=N292212.1.2.3	kV=34.5	kVA=75	wdg=2	bus=G2100HE3000_N292212_sec.1.2.3	kV=0.480	kVA=75	%imag=0.5	%loadloss=1.316	%noloadloss=0.198	xhl=1.745
New	Transformer.05410_G2100HE5100	phases=1	wdg=1	bus=N292209.3	kV=19.9185842870421	kVA=25	wdg=2	bus=G2100HE5100_N292209_sec.3	kV=0.24	kVA=25	%imag=0.5	%loadloss=1.316	%noloadloss=0.198	xhl=1.745
New	Transformer.05410_G2100HG2500	phases=3	wdg=1	bus=N292273.1.2.3	kV=34.5	kVA=150	wdg=2	bus=G2100HG2500_N292273_sec.1.2.3	kV=0.480	kVA=150	%imag=0.5	%loadloss=0.915666666666667	%noloadloss=0.154666666666667	xhl=2.9
New	Transformer.05410_G2100HG2900	phases=3	wdg=1	bus=N292296.1.2.3	kV=34.5	kVA=500	wdg=2	bus=G2100HG2900_N292296_sec.1.2.3	kV=0.480	kVA=500	%imag=0.5	%loadloss=0.7732	%noloadloss=0.1563	xhl=3.675
New	Transformer.05410_G2100HG5500	phases=3	wdg=1	bus=N292272.1.2.3	kV=34.5	kVA=500	wdg=2	bus=G2100HG5500_N292272_sec.1.2.3	kV=0.480	kVA=500	%imag=0.5	%loadloss=0.7732	%noloadloss=0.1563	xhl=3.675
New	Transformer.05410_G2100HI8200	phases=3	wdg=1	bus=N292329.1.2.3	kV=34.5	kVA=300	wdg=2	bus=G2100HI8200_N292329_sec.1.2.3	kV=0.480	kVA=300	%imag=0.5	%loadloss=0.818166666666667	%noloadloss=0.1525	xhl=3.505
New	Transformer.05410_G2100HM3200	phases=1	wdg=1	bus=N292420.3	kV=19.9185842870421	kVA=100	wdg=2	bus=G2100HM3200_N292420_sec.3	kV=0.24	kVA=100	%imag=0.5	%loadloss=1.3575	%noloadloss=0.131	xhl=3.29
New	Transformer.05410_G2100HM9900	phases=1	wdg=1	bus=N292433.3	kV=19.9185842870421	kVA=250	wdg=2	bus=G2100HM9900_N292433_sec.3	kV=0.24	kVA=250	%imag=0.5	%loadloss=0.465	%noloadloss=0.1322	xhl=3
New	Transformer.05410_G2100HN2600	phases=3	wdg=1	bus=N292488.1.2.3	kV=34.5	kVA=750	wdg=2	bus=G2100HN2600_N292488_sec.1.2.3	kV=0.480	kVA=750	%imag=0.5	%loadloss=0.706	%noloadloss=0.1492	xhl=5.27
New	Transformer.05410_G2100HN2900	phases=3	wdg=1	bus=N292508.1.2.3	kV=34.5	kVA=150	wdg=2	bus=G2100HN2900_N292508_sec.1.2.3	kV=0.480	kVA=150	%imag=0.5	%loadloss=0.915666666666667	%noloadloss=0.154666666666667	xhl=2.9
New	Transformer.05410_G2100HN4000	phases=3	wdg=1	bus=N292484.1.2.3	kV=34.5	kVA=500	wdg=2	bus=G2100HN4000_N292484_sec.1.2.3	kV=0.480	kVA=500	%imag=0.5	%loadloss=0.7732	%noloadloss=0.1563	xhl=3.675
New	Transformer.05410_G2100HN5600	phases=1	wdg=1	bus=N292453.3	kV=19.9185842870421	kVA=167	wdg=2	bus=G2100HN5600_N292453_sec.3	kV=0.24	kVA=167	%imag=0.5	%loadloss=0.833532934131737	%noloadloss=0.161976047904192	xhl=2.355
New	Transformer.05410_G2100HN8900	phases=3	wdg=1	bus=N292496.1.2.3	kV=34.5	kVA=150	wdg=2	bus=G2100HN8900_N292496_sec.1.2.3	kV=0.480	kVA=150	%imag=0.5	%loadloss=0.915666666666667	%noloadloss=0.154666666666667	xhl=2.9
New	Transformer.05410_G2100HO5800	phases=3	wdg=1	bus=N292529.1.2.3	kV=34.5	kVA=150	wdg=2	bus=G2100HO5800_N292529_sec.1.2.3	kV=0.480	kVA=150	%imag=0.5	%loadloss=0.915666666666667	%noloadloss=0.154666666666667	xhl=2.9
New	Transformer.05410_G2100HO7800	phases=3	wdg=1	bus=N292524.1.2.3	kV=34.5	kVA=150	wdg=2	bus=G2100HO7800_N292524_sec.1.2.3	kV=0.480	kVA=150	%imag=0.5	%loadloss=0.915666666666667	%noloadloss=0.154666666666667	xhl=2.9
New	Transformer.05410_G2100IK6900	phases=3	wdg=1	bus=N292403.1.2.3	kV=34.5	kVA=300	wdg=2	bus=G2100IK6900_N292403_sec.1.2.3	kV=0.480	kVA=300	%imag=0.5	%loadloss=0.818166666666667	%noloadloss=0.1525	xhl=3.505
New	Transformer.05410_G2100IL1000	phases=1	wdg=1	bus=N292412.3	kV=19.9185842870421	kVA=167	wdg=2	bus=G2100IL1000_N292412_sec.3	kV=0.24	kVA=167	%imag=0.5	%loadloss=0.833532934131737	%noloadloss=0.161976047904192	xhl=2.355
New	Transformer.05410_G2100IL4000	phases=3	wdg=1	bus=N292400.1.2.3	kV=34.5	kVA=500	wdg=2	bus=G2100IL4000_N292400_sec.1.2.3	kV=0.480	kVA=500	%imag=0.5	%loadloss=0.7732	%noloadloss=0.1563	xhl=3.675
New	Transformer.05410_G2100IM6700	phases=1	wdg=1	bus=N292430.3	kV=19.9185842870421	kVA=167	wdg=2	bus=G2100IM6700_N292430_sec.3	kV=0.24	kVA=167	%imag=0.5	%loadloss=0.833532934131737	%noloadloss=0.161976047904192	xhl=2.355
New	Transformer.05410_G2100IN2700	phases=1	wdg=1	bus=N292475.3	kV=19.9185842870421	kVA=167	wdg=2	bus=G2100IN2700_N292475_sec.3	kV=0.24	kVA=167	%imag=0.5	%loadloss=0.833532934131737	%noloadloss=0.161976047904192	xhl=2.355
New	Transformer.05410_G2100IN7700	phases=1	wdg=1	bus=N292438.3	kV=19.9185842870421	kVA=167	wdg=2	bus=G2100IN7700_N292438_sec.3	kV=0.24	kVA=167	%imag=0.5	%loadloss=0.833532934131737	%noloadloss=0.161976047904192	xhl=2.355
New	Transformer.05410_G2100JI1800	phases=1	wdg=1	bus=N292338.1	kV=19.9185842870421	kVA=25	wdg=2	bus=G2100JI1800_N292338_sec.1	kV=0.24	kVA=25	%imag=0.5	%loadloss=1.266	%noloadloss=0.248	xhl=1.835
New	Transformer.05410_G2100JJ1000	phases=3	wdg=1	bus=N292352.1.2.3	kV=34.5	kVA=150	wdg=2	bus=G2100JJ1000_N292352_sec.1.2.3	kV=0.480	kVA=150	%imag=0.5	%loadloss=0.915666666666667	%noloadloss=0.154666666666667	xhl=2.9
New	Transformer.05410_G2100JL9000	phases=3	wdg=1	bus=N292352.1.2.3	kV=34.5	kVA=750	wdg=2	bus=G2100JL9000_N292352_sec.1.2.3	kV=0.480	kVA=750	%imag=0.5	%loadloss=0.706	%noloadloss=0.1492	xhl=5.27
New	Transformer.05410_G2100JO5900	phases=1	wdg=1	bus=N300601.3	kV=19.9185842870421	kVA=50	wdg=2	bus=G2100JO5900_N300601_sec.3	kV=0.24	kVA=50	%imag=0.5	%loadloss=1.134	%noloadloss=0.181	xhl=1.965
New	Transformer.05410_G2100JP2000	phases=3	wdg=1	bus=N300602.1.2.3	kV=34.5	kVA=75	wdg=2	bus=G2100JP2000_N300602_sec.1.2.3	kV=0.480	kVA=75	%imag=0.5	%loadloss=1.316	%noloadloss=0.198	xhl=1.745
New	Transformer.05410_G2100JP3100	phases=1	wdg=1	bus=N300601.1	kV=19.9185842870421	kVA=25	wdg=2	bus=G2100JP3100_N300601_sec.1	kV=0.24	kVA=25	%imag=0.5	%loadloss=1.316	%noloadloss=0.198	xhl=1.745
New	Transformer.05410_G2100KO2700	phases=3	wdg=1	bus=N300582.1.2.3	kV=34.5	kVA=150	wdg=2	bus=G2100KO2700_N300582_sec.1.2.3	kV=0.480	kVA=150	%imag=0.5	%loadloss=1.134	%noloadloss=0.181	xhl=1.965
New	Transformer.05410_G2100KO6600	phases=3	wdg=1	bus=N300582.1.2.3	kV=34.5	kVA=75	wdg=2	bus=G2100KO6600_N300582_sec.1.2.3	kV=0.480	kVA=75	%imag=0.5	%loadloss=1.316	%noloadloss=0.198	xhl=1.745
New	Transformer.05410_G2100KO9900	phases=1	wdg=1	bus=N300626.1	kV=19.9185842870421	kVA=167	wdg=2	bus=G2100KO9900_N300626_sec.1	kV=0.24	kVA=167	%imag=0.5	%loadloss=0.833532934131737	%noloadloss=0.161976047904192	xhl=2.355
New	Transformer.05410_G2100MK7800	phases=1	wdg=1	bus=N300492.3	kV=19.9185842870421	kVA=10	wdg=2	bus=G2100MK7800_N300492_sec.3	kV=0.24	kVA=10	%imag=0.5	%loadloss=1.4	%noloadloss=0.325	xhl=1.575
...